2
9
.tran 100u 100m 0
2
1
/VIN
V
1
/VOUT
V
0

0
